PDE   1989  1 1101616.51  -11.687 -77.429 45.8D170.665.290                0X    0
PDE   1989  1 2 0 041.40  -18.141-178.533663.2?  0.665.224                0X    0
PDE   1989  1 2 152 9.74  -18.507-174.641123.4D160.966.042                0X    0
PDE   1989  1 2182137.11?  -7.498 130.138174.9?  0.915.230                0X    0
PDE   1989  1 3 44111.97   29.462 131.516 40.5D221.025.8765.4Z 5          0X    0
PDE   1989  1 3165219.06   35.500  11.655 10.0G  1.315.0294.5Z 1          0X    0
PDE   1989  1 4 22331.95   -6.184 130.321143.4*  0.895.180                0X    0
PDE   1989  1 4 72940.82   40.867  44.331 10.0G  1.115.0124.0Z 1          0X    0
PDE   1989  1 4101422.02   -5.734 146.087106.0*  1.005.416                0X    0
PDE   1989  1 415 421.13   16.424 -97.816 33.0N  0.875.016                0X    0
PDE   1989  1 514 2 2.73   -7.511 128.904143.3D121.365.214                0X    0
PDE   1989  1 6 4 248.41   20.080 121.413 44.8*  0.915.0224.4Z 3          0X    0
PDE   1989  1 6 52657.92   35.493  11.711 10.0G  1.265.0234.5Z 1          0X    0
PDE   1989  1 61547 8.80   46.691 153.940 33.0N  0.985.3424.5Z 2          0X    0
PDE   1989  1 6185220.92   36.293 142.127 11.2   1.005.180                3B  948
PDE   1989  1 619 4 5.85   46.737 153.950 43.1D 40.945.7645.5Z 8          3B  949
PDE   1989  1 619 826.93   36.367 141.799 40.7   0.955.4275.8Z 5          3B  950
PDE   1989  1 62112 8.30*  46.769 153.783 33.0N  1.075.017                0X    0
PDE   1989  1 6231956.90? -65.341-179.593 10.0G  0.265.1105.2Z 2          0X    0
PDE   1989  1 7 22929.35?  45.330   6.785 10.0G  1.315.210      3.30MnDO  0X    0
PDE   1989  1 7 72611.52  -23.289 -68.451122.8D141.275.527                0X    0
PDE   1989  1 7 93933.69    6.824 -73.151162.5   0.975.010                0X    0
PDE   1989  1 7221128.41   36.017 141.394 20.8   1.035.010                0X    0
PDE   1989  1 81957 6.18   51.477-174.857 33.0N  1.065.7725.5Z115.70MsBR  0X    0
PDE   1989  1 8202625.13   51.433-174.773 33.0N  0.845.149      5.70MLPM  0X    0
PDE   1989  1 8223731.01   51.396-174.719 33.0N  0.955.6645.3Z 75.40MsBR  0X    0
PDE   1989  1 9 31517.40   34.088 138.873 10.0G  1.395.017                0X    0
PDE   1989  1 910 227.51   35.558  11.695 12.9   1.335.0254.3Z 1          0X    0
PDE   1989  1 9111657.32   51.387-174.758 33.0N  0.975.2494.9Z 35.20MLPM  0X    0
PDE   1989  1 9134239.03   46.972 153.458 33.0N  1.386.0556.4Z196.20MsBR  2B  692
PDE   1989  1 9134945.34   47.285 152.180 59.4D 80.975.115                2B  693
PDE   1989  1 9135513.00   46.721 153.767 39.2D 80.825.342                2B  694
PDE   1989  1 9151455.98   46.726 153.792 33.0D 60.855.127                0X    0
PDE   1989  1 9152433.37   46.613 153.744 35.5D 60.855.124                0X    0
PDE   1989  1 9181744.39*  -5.406 151.031144.2*  0.965.070                0X    0
PDE   1989  110 55457.65   -3.217 130.581 19.5D101.356.0406.5Z226.70MsBR  2B  695
PDE   1989  111115820.46* -32.557 -71.802 51.6*  0.965.170                0X    0
PDE   1989  1111330 7.28   46.452 153.803 33.0N  1.065.4435.5Z 1          0X    0
PDE   1989  1112228 3.42*  12.602 -87.838 78.1D 31.295.060                0X    0
PDE   1989  112 25535.92   46.467 153.615 33.0N  0.905.5684.6Z 2          0X    0
PDE   1989  112 311 9.39*  46.426 153.478 33.0N  1.144.9145.3Z 1          0X    0
PDE   1989  112 62834.61* -59.509 -25.848 33.0N  0.825.210                0X    0
PDE   1989  112194740.94   46.767 153.922 33.0N  1.005.6615.9Z15          0X    0
PDE   1989  113 342 9.19* -26.898-176.415 33.0N  1.185.350                0X    0
PDE   1989  113 42648.59? -38.437 -71.986 33.0N  1.075.0104.6Z 1          0X    0
PDE   1989  113 81132.28   -6.775 155.346 73.2   0.805.517                0X    0
PDE   1989  113135813.72*  46.445 154.261 33.0N  1.045.013                0X    0
PDE   1989  113155953.76  -15.336 167.483142.8*  1.105.170                0X    0
PDE   1989  11318 156.61   46.478 153.661 33.0N  1.025.7605.6Z10          0X    0
PDE   1989  114 05033.27  -15.156-173.742 33.0N  1.005.7205.1Z 3          0X    0
PDE   1989  114 42112.08   46.401 153.846 38.5D230.955.2454.9Z 3          0X    0
PDE   1989  115 12745.84  -31.689 -71.718 47.1   0.895.324                0X    0
PDE   1989  115 31950.64  -31.740 -71.793 50.3   0.875.1195.6Z 1          0X    0
PDE   1989  115185241.21* -58.986 -25.994 33.0N  1.265.314                0X    0
PDE   1989  116 44054.52? -11.015 -15.375 10.0G  0.605.030                0X    0
PDE   1989  116 72420.60   41.439 142.078 70.5D 30.955.249                0X    0
PDE   1989  116201125.34   32.677 141.716 33.0N  1.015.130                0X    0
PDE   1989  117 03525.22   -6.187 149.025 49.6D 41.235.8196.5Z256.30MsBR  0X    0
PDE   1989  117 5 414.39   -2.160 138.830 33.0N  0.855.1704.6Z 1          0X    0
PDE   1989  117112047.31*   5.453 -79.274 33.0N  1.275.0164.5Z 1          0X    0
PDE   1989  11720 830.29   -5.765 150.357 90.0*  0.885.311                0X    0
PDE   1989  118 44032.13* -17.312-178.514368.0?  1.215.017                0X    0
PDE   1989  118135311.37  -21.557-178.161404.5?  0.995.119                0X    0
PDE   1989  118173211.27   -7.081 -74.674147.5D360.885.466                0X    0
PDE   1989  118175849.52*  -0.687 136.870 33.0N  1.375.250                0X    0
PDE   1989  118182247.19   30.198 100.042 33.0N  1.115.043                0X    0
PDE   1989  119 31747.88   -4.008-105.738 10.0G  1.175.5155.8Z 95.90MsBR  0X    0
PDE   1989  119 65327.53   33.912-118.705 10.0G  0.865.2294.8Z 15.20MLBR  0X    0
PDE   1989  120 15517.91  -10.315 -74.885129.1D180.785.142                0X    0
PDE   1989  120 2 354.35* -42.006  79.905 10.0G  1.545.3606.1Z 3          0X    0
PDE   1989  120 21558.41* -41.806  80.189 10.0G  1.385.2126.0Z 4          0X    0
PDE   1989  120172639.50  -11.572 166.089 77.5?  1.215.316                0X    0
PDE   1989  121 25220.44   38.149 -26.229 10.0G  0.875.4625.2Z 2          0X    0
PDE   1989  121135719.65   29.449 131.692 31.8D 80.965.010                0X    0
PDE   1989  12114 612.06   29.497 131.608 32.2D150.955.4584.8Z 1          0X    0
PDE   1989  121141355.66   29.532 131.629 30.7D 70.805.214                0X    0
PDE   1989  121141916.35*  29.504 131.661 33.0N  0.725.030                0X    0
PDE   1989  121173737.41   29.501 131.557 32.0D 90.945.219                0X    0
PDE   1989  121204237.73   29.420 131.609 30.6D 50.825.4334.4Z 1          0X    0
PDE   1989  121205329.79   29.402 131.590 31.5D 50.965.280                0X    0
PDE   1989  121211432.27* -17.710-173.324 14.6D 61.095.5165.3Z 3          0X    0
PDE   1989  122 114 0.65   29.517 131.692 33.2D 61.035.1134.7Z 1          0X    0
PDE   1989  122 357 6.59   49.915  78.857  0.0G  0.866.0994.5Z 2          0X    0
PDE   1989  122222016.82   41.792 144.342 17.4   0.856.1746.3Z225.80MsBR  0X    0
PDE   1989  122224837.83   41.824 144.263 33.0N  0.955.131                0X    0
PDE   1989  12223 2 7.10   38.454  68.700 33.0N  1.015.362                0X    0
PDE   1989  123 73658.19   -5.519 102.888 39.4D 40.995.2904.8Z 2          0X    0
PDE   1989  123111749.81   -5.614 151.810 44.5*  0.945.2154.6Z 1          0X    0
PDE   1989  12314 623.14   61.817   4.465 10.0G  1.195.525                0X    0
PDE   1989  123141336.63* -22.763-176.284 33.0N  1.155.350                0X    0
PDE   1989  124 4 026.13  -54.707 -26.666 10.0G  0.895.4114.8Z 1          0X    0
PDE   1989  124 44912.47   27.346 128.371 65.4   0.755.325                0X    0
PDE   1989  12420 337.81   42.253 142.740 38.1D260.885.5725.5Z 6          0X    0
PDE   1989  125101433.62  -27.965  26.727  5.0G  0.815.4424.4Z 1          0X    0
PDE   1989  126 35015.58  -17.963-178.793559.5?  0.855.224                0X    0
PDE   1989  1261355 1.61   47.522 154.355 27.5D110.845.6645.5Z13          0X    0
PDE   1989  126231652.67*  52.801-170.666 33.0N  1.135.030                0X    0
PDE   1989  127 83451.27   56.228 164.397 28.2D391.075.5406.3Z166.30MsBR  0X    0
PDE   1989  127142927.23   12.135 143.887 35.1   1.195.1124.5Z 2          0X    0
PDE   1989  128 14832.54? -25.358-175.239 33.0N  1.385.1204.5Z 1          0X    0
PDE   1989  128 72655.21   33.252 141.495 52.9D121.255.429                0X    0
PDE   1989  128195440.73* -10.759 165.942126.1?  0.875.150                0X    0
PDE   1989  128212753.52?   9.180 121.780 33.0N  1.205.040                0X    0
PDE   1989  129173448.92   44.551 148.735 50.9D130.765.252                0X    0
PDE   1989  130 4 622.78U& 38.824-111.614 24.0       5.0254.8Z 25.40MLSL  0X    0
PDE   1989  130 74544.85    7.886 -72.086 41.9   0.755.4624.5Z 1          0X    0
PDE   1989  130175220.90*   3.071 123.078489.9*  0.985.050                0X    0
PDE   1989  131 04618.52   -6.157 149.033 57.7*  1.005.5145.1Z 2          0X    0
PDE   1989  131 24910.97* -14.800  66.492 10.0G  0.655.014                0X    0
PDE   1989  131 7 829.70  -14.644  66.458 10.0G  0.865.4465.3Z 3          0X    0
PDE   1989  131173924.27   22.190-107.319 10.0G  1.325.2244.8Z 14.90MsBR  0X    0
PDE   1989  131213154.44?  -4.298 129.241168.7*  1.295.020                0X    0
PDE   1989  2 1102241.68   31.551 140.186118.8   0.845.578                0X    0
PDE   1989  2 3 04554.62  -17.613-178.705546.3D 50.775.015                0X    0
PDE   1989  2 3 55437.10*  18.594 145.817120.5*  0.685.090                0X    0
PDE   1989  2 3151825.46   64.575 -17.366 10.0G  1.065.2414.7Z 1          0X    0
PDE   1989  2 31750 1.95   30.044  89.761 33.0N  1.315.4635.2Z 2          0X    0
PDE   1989  2 3184440.80* -20.123-178.988680.8?  0.545.017                0X    0
PDE   1989  2 3231729.01   -5.539 154.318114.0   1.045.280                0X    0
PDE   1989  2 4 94453.83   24.127 123.344 59.1   0.645.131                0X    0
PDE   1989  2 4105650.93   37.281 141.252 64.9   0.865.242                0X    0
PDE   1989  2 4142348.00  -19.552-179.787559.4?  0.685.316                0X    0
PDE   1989  2 4155152.25    0.069 -16.695 10.0G  1.055.6475.3Z 3          0X    0
PDE   1989  2 417 0 2.01   -1.142 -13.636 10.0G  0.815.241                0X    0
PDE   1989  2 41924 8.68    6.030 -82.644 10.0G  0.975.8575.9Z105.90MsBR  0X    0
PDE   1989  2 4202646.39*  -5.570 147.221177.7   0.605.360                0X    0
PDE   1989  2 4221041.13   -4.652 153.014 73.0   0.966.133                0X    0
PDE   1989  2 5 15948.72   33.384 140.867 60.3D280.985.667                0X    0
PDE   1989  2 5135520.62  -17.276 -70.197134.6   0.825.133                0X    0
PDE   1989  2 5202153.38*  -7.304 121.640513.8?  0.935.270                0X    0
PDE   1989  2 7 2 426.08   -5.052 134.193 33.0N  1.425.111                0X    0
PDE   1989  2 7 4 3 0.14  -22.100 -67.195179.5D180.795.526                0X    0
PDE   1989  2 7124144.04* -27.299-177.131166.0*  1.185.070                0X    0
PDE   1989  2 7133527.55  -23.697 179.835563.9D 20.765.321                0X    0
PDE   1989  2 715 858.34   -3.342 148.716 32.5*  1.185.3305.0Z 1          0X    0
PDE   1989  2 8234645.08  -55.605 -26.706 51.3D 31.065.514                0X    0
PDE   1989  2 9 2 639.84* -55.866 -26.865 33.0N  1.545.3105.0Z 1          0X    0
PDE   1989  2 9 42123.11   52.068-169.846 33.0N  0.935.1384.7Z 35.10MLPM  0X    0
PDE   1989  2 9185824.89* -41.962  88.060 10.0G  1.155.2905.3Z 1          0X    0
PDE   1989  2 9215552.13    7.505 126.721 98.8*  1.015.050                0X    0
PDE   1989  2 92249 2.38  -22.565 -66.007247.9   0.805.235                0X    0
PDE   1989  2 9234911.40   -8.632  29.968 10.0G  0.845.338                0X    0
PDE   1989  210 744 4.73? -20.496-178.077564.6?  0.835.080                0X    0
PDE   1989  210111522.87    2.258 126.816 33.2*  1.356.3496.8Z156.60MsBR  0X    0
PDE   1989  2101126 6.00*   2.365 126.855 33.0N  0.665.240                0X    0
PDE   1989  210113626.18    2.324 126.564 33.0N  1.155.270                0X    0
PDE   1989  210113715.21*   2.459 126.521 33.0N  1.185.540                0X    0
PDE   1989  210114736.84*   2.468 126.826 33.0N  1.355.350                0X    0
PDE   1989  21012 742.87    2.355 126.724 33.0N  1.155.414                0X    0
PDE   1989  2101212 3.63    2.240 126.697 33.0N  1.025.522                0X    0
PDE   1989  210121648.17    2.444 126.710 33.0N  1.325.513                0X    0
PDE   1989  210122744.32    2.387 126.685 33.0N  0.615.180                0X    0
PDE   1989  210125930.41    2.412 126.757 33.0N  1.195.629                0X    0
PDE   1989  210133353.48    2.187 126.762 33.0N  1.145.110                0X    0
PDE   1989  21014 629.04    2.323 126.712 33.0N  1.325.421                0X    0
PDE   1989  210142138.94    2.396 126.733 33.0N  0.755.240                0X    0
PDE   1989  210152355.31    2.442 126.740 33.0N  1.025.526                0X    0
PDE   1989  210165919.29    6.346  92.297 33.0N  1.095.3485.3Z 5          0X    0
PDE   1989  210195653.96    2.402 126.674 33.0N  1.255.422                0X    0
PDE   1989  21020 6 0.06E& 37.077-116.001  0.0       5.247                0X    0
PDE   1989  210202943.20    2.370 126.781 33.0N  1.175.323                0X    0
PDE   1989  210213945.78    2.353 126.632 33.0N  1.095.080                0X    0
PDE   1989  210223016.03    2.374 126.679 33.0N  1.075.060                0X    0
PDE   1989  210234228.78   21.475-108.266 10.0G  0.995.090                0X    0
PDE   1989  211 13529.86    2.342 126.636 52.6*  1.355.219                0X    0
PDE   1989  211 157 4.82    2.372 126.717 45.9   1.345.2255.0Z 3          0X    0
PDE   1989  211 4 522.05    2.406 126.837 40.8*  1.375.1134.1Z 1          0X    0
PDE   1989  211154426.95  -15.826 167.652160.8*  1.275.617                0X    0
PDE   1989  212 415 6.78   49.895  78.758  0.0G  0.895.9994.4Z 1          0X    0
PDE   1989  212 75547.75   26.179  96.833 33.0N  1.075.0254.4Z 1          0X    0
PDE   1989  21211 553.49   57.124 -33.540 10.0G  1.345.2455.3Z 1          0X    0
PDE   1989  212111838.10  -21.404-178.861516.1*  1.035.132                0X    0
PDE   1989  212142648.06   19.769 -74.335 59.6D130.975.255                0X    0
PDE   1989  21220 316.32    2.666 -79.881 33.0N  0.955.0334.1Z 1          0X    0
PDE   1989  213 2 212.11    1.309 127.347117.1*  1.025.124                0X    0
PDE   1989  213 8 655.72    7.970 -38.076 10.0G  1.115.4375.3Z 4          0X    0
PDE   1989  213112544.08    2.333 126.765 60.8*  1.155.221                0X    0
PDE   1989  213121520.92    4.963 126.912 96.6   1.115.747                0X    0
PDE   1989  213141715.74* -57.928 -25.662 33.0N  1.085.110                0X    0
PDE   1989  213145124.58   57.472 -33.148 10.0G  0.935.3405.2Z10          0X    0
PDE   1989  213151447.59   57.438 -33.262 10.0G  1.075.2445.2Z 8          0X    0
PDE   1989  213165640.51? -25.321-176.893 33.0N  1.585.060                0X    0
PDE   1989  213234346.75   25.611 142.544 32.2   1.075.5395.4Z10          0X    0
PDE   1989  213235819.58*  -1.331 127.419 62.4*  1.575.0906.1Z 1          0X    0
PDE   1989  214 11128.64* -64.829 177.280 10.0G  1.145.0504.7Z 2          0X    0
PDE   1989  214 35924.68   25.580 142.531 81.5?  1.065.012                0X    0
PDE   1989  214 62020.21  -10.456 161.387 23.6   1.086.0566.5Z30          0X    0
PDE   1989  2141453 5.50* -17.430 167.393 33.0N  1.434.8105.1Z 6          0X    0
PDE   1989  215 32757.54   -8.151 117.420210.1*  0.995.080                0X    0
PDE   1989  21510 516.46* -59.263 -25.756 33.0N  0.785.260                0X    0
PDE   1989  215104610.46*   5.898 -77.755 38.0*  1.565.2403.5Z 1          0X    0
PDE   1989  216 115 5.86    9.926 126.331 33.0N  0.955.280                0X    0
PDE   1989  216 51728.90* -21.708-174.019 33.0N  1.095.015                0X    0
PDE   1989  216 95758.26    5.875 125.815118.8*  1.085.333                0X    0
PDE   1989  216163653.77* -56.247-122.512 10.0G  1.485.4186.0Z14          0X    0
PDE   1989  216194246.34    2.567 126.666 61.4?  1.275.016                0X    0
PDE   1989  216215038.04   45.304 151.834 96.0D670.795.672                3B 1333
PDE   1989  217 03911.45*   2.232 -95.114 10.0G  0.614.9305.0Z 2          0X    0
PDE   1989  217 11426.87    0.453 126.368 30.4   1.065.4295.2Z 5          0X    0
PDE   1989  217 4 1 6.87   49.877  78.126  0.0G  0.785.052                0X    0
PDE   1989  217 5 143.48  -21.823-176.428141.3D 41.025.432                0X    0
PDE   1989  217151252.57  -17.509 -72.609 47.6*  1.185.3155.3Z 3          0X    0
PDE   1989  218 04947.56    2.344 126.701 88.5*  1.115.117                0X    0
PDE   1989  21811 145.86    7.616  94.154 33.0N  1.265.3525.0Z 4          0X    0
PDE   1989  218131334.86*   9.865  57.841 10.0G  1.315.260                0X    0
PDE   1989  218164039.43? -55.509 -28.916 33.0N  1.205.130                0X    0
PDE   1989  21817 838.80   -7.087 146.998 23.1   1.225.0604.4Z 1          0X    0
PDE   1989  219 14556.19    7.591  94.051 15.9*  1.305.2414.8Z 2          0X    0
PDE   1989  219 42344.48   -7.821 -74.004 47.5D 50.975.238                0X    0
PDE   1989  2191039 3.22   -2.019 138.917 30.8   1.105.5354.7Z 5          0X    0
PDE   1989  2191227 9.83   35.955 139.850 58.7   1.055.467                0X    0
PDE   1989  219124910.33  -14.902 167.169104.9D 41.165.635                0X    0
PDE   1989  219175548.35  -39.233  46.072 10.0G  0.785.211                0X    0
PDE   1989  221205528.32* -37.425  50.913 10.0G  1.375.011                0X    0
PDE   1989  22122 855.38  -44.541 -79.070 33.0N  0.765.6215.3Z 4          0X    0
PDE   1989  222102545.66   56.266-153.592 33.0N  1.105.7745.8Z215.90MsBR  0X    0
PDE   1989  223 55112.76  -14.821 167.347169.6D121.025.434                0X    0
PDE   1989  224 04034.93   37.763  29.438 17.2   1.115.0454.6Z 24.90MLAT  0X    0
PDE   1989  224 73349.33   14.116 124.367 25.9D 71.105.2184.9Z 2          0X    0
PDE   1989  224123659.16* -38.415 -70.980 33.0N  1.155.314                0X    0
PDE   1989  224133850.01    3.183  96.338 68.3*  0.905.012                0X    0
PDE   1989  225 44218.72*   1.924 127.950 37.9?  1.155.070                0X    0
PDE   1989  225112636.79  -29.854-177.847 42.2D141.196.3266.6Z206.60MsBR  0X    0
PDE   1989  22512 314.54* -29.631-177.902 50.1D 31.475.260                0X    0
PDE   1989  22514 128.55* -30.125-177.850 52.9D 71.055.140                0X    0
PDE   1989  226 53442.21* -58.980 -25.860 33.0N  0.745.470                0X    0
PDE   1989  2261256 2.45    2.417 128.129 33.0N  0.855.150                0X    0
PDE   1989  22617 228.34*   2.281 126.639 82.4*  1.055.290                0X    0
PDE   1989  226205925.46  -23.827-177.328 25.0D 50.935.212                0X    0
PDE   1989  227 1 9 4.62? -26.739 -69.425 33.0N  1.065.010                0X    0
PDE   1989  227233910.86    2.289 127.974 55.0   1.045.8276.1Z156.20MsBR  0X    0
PDE   1989  228 05127.18    2.294 127.874 53.2   1.115.7275.3Z 2          0X    0
PDE   1989  228 12534.88    2.220 127.896 61.6   1.235.512                0X    0
PDE   1989  228 55032.26    2.231 127.900 56.1*  1.245.2124.4Z 1          0X    0
PDE   1989  228 6 712.27*   2.261 127.882 68.6?  1.065.090                0X    0
PDE   1989  22813 157.43  -23.114 -61.506568.8D191.035.665                0X    0
PDE   1989  228134857.44   -7.623 127.387200.0   0.765.011                0X    0
PDE   1989  228215750.41* -11.330 166.173 59.9?  1.125.120                0X    0
PDE   1989  3 1 242 2.94   43.860 149.012 45.2D 91.005.7515.8Z 9          0X    0
PDE   1989  3 1 325 7.80   21.728  97.936 33.0N  1.135.1325.4Z 4          0X    0
PDE   1989  3 1 42630.79   -4.954 149.659 33.0N  1.065.3905.5Z 1          0X    0
PDE   1989  3 113 032.51   31.525 102.538 10.0G  1.045.110                0X    0
PDE   1989  3 113 819.77   43.873 149.190 42.2D270.935.4495.2Z 2          0X    0
PDE   1989  3 2 3 827.90?  12.135 141.794 33.0N  0.345.150                0X    0
PDE   1989  3 2 71345.57   18.378 -68.688128.5D600.875.660                0X    0
PDE   1989  3 2141027.58   -0.667 -77.607 35.9*  0.895.015                0X    0
PDE   1989  3 5 64129.31* -14.499 166.723 33.0N  1.065.010                0X    0
PDE   1989  3 5134841.81   42.550  74.667 33.0N  1.185.0904.0Z 2          0X    0
PDE   1989  3 5141817.51? -31.165 -72.131 33.0N  0.535.220                0X    0
PDE   1989  3 5201320.38   51.052-178.984 33.0N  0.905.1544.4Z 2          0X    0
PDE   1989  3 6 03211.12* -10.603 166.051180.3?  0.975.160                0X    0
PDE   1989  3 6 72610.01   -3.344 143.871 33.0N  0.915.1114.9Z 2          0X    0
PDE   1989  3 61144 4.24*  -3.312 -80.764 33.0N  1.375.070                0X    0
PDE   1989  3 6143944.65   35.562 140.542 58.9   0.965.980                0X    0
PDE   1989  3 7 430 7.70? -29.764-177.389 33.0N  1.205.030                0X    0
PDE   1989  3 7225427.12? -40.428 -75.185 33.0N  1.115.050                0X    0
PDE   1989  3 8 23428.76   -0.247 124.964 62.9D 81.225.847                0X    0
PDE   1989  3 8 35718.09  -18.973 168.617 33.0N  1.155.2136.2Z 2          0X    0
PDE   1989  3 8 54811.23    4.610 125.889 57.9D 41.175.522                0X    0
PDE   1989  3 8 6 159.46? -17.566-178.289570.6*  0.695.280                0X    0
PDE   1989  3 8 72535.18   51.274-178.954 63.0   0.905.038                0X    0
PDE   1989  3 8 82235.29   -6.030 105.406 33.0N  0.945.312                0X    0
PDE   1989  3 811 056.13*   3.264 -31.269 10.0G  0.975.0505.2Z 1          0X    0
PDE   1989  3 8114434.44    1.012 126.244 54.3D101.146.045                0X    0
PDE   1989  3 8153657.82   51.696-175.192 59.8*  1.045.014                0X    0
PDE   1989  3 8183943.03*   3.287 -31.380 10.0G  1.114.9705.1Z 1          0X    0
PDE   1989  3 820 2 3.80   26.956  92.727 33.0N  0.855.0364.1Z 1          0X    0
PDE   1989  3 9 237 0.68  -13.759  34.318 33.0N  0.945.8515.5Z11          3B 1577
PDE   1989  310 51952.47   17.605-101.021 44.3D 41.215.3314.8Z 4          0X    0
PDE   1989  310 91045.28   -6.916 155.970106.4   0.905.111                0X    0
PDE   1989  310141410.50   -4.349 152.788 56.9   1.175.6395.4Z 9          0X    0
PDE   1989  310214945.99  -13.775  34.341 33.0N  0.886.2466.1Z19          3B 1578
PDE   1989  311 4 226.98   -5.248 152.538 47.3   0.935.5194.5Z 1          0X    0
PDE   1989  311 5 454.72  -17.715-174.813178.0   1.016.334                0X    0
PDE   1989  311 71217.26   35.908 140.538 34.6D 21.085.023                0X    0
PDE   1989  311184647.31   -6.743 129.749148.4   1.055.015                0X    0
PDE   1989  312 658 6.29    2.412 126.813 56.2*  1.255.2283.9Z 1          0X    0
PDE   1989  312 72824.41* -29.390-178.055 55.2D 31.245.290                0X    0
PDE   1989  312171045.52  -19.047-179.125634.0*  1.475.017                0X    0
PDE   1989  313 33747.31* -25.795-176.801 70.1D 81.135.270                0X    0
PDE   1989  31313 215.05   50.735   9.882  5.0G  1.335.4244.7Z 15.70MLGR  3B 1579
PDE   1989  313144238.63? -20.434-177.887523.3*  1.145.290                0X    0
PDE   1989  31322 517.32    0.659 127.374143.2*  1.105.060                0X    0
PDE   1989  3141942 6.51   61.136 -59.300 10.0G  1.094.835      5.30MLOT  0X    0
PDE   1989  315 12843.04   26.048 128.423 33.0N  1.185.111                0X    0
PDE   1989  315 41734.23* -30.580-177.985 64.5?  1.595.1115.0Z 2          0X    0
PDE   1989  315 51630.95* -22.509 170.981 51.3*  1.585.190                0X    0
PDE   1989  316 41728.37   60.027 -69.644 10.0G  0.975.150                0X    0
PDE   1989  316 72355.83* -63.337 -61.026 10.0G  1.115.3804.8Z 3          0X    0
PDE   1989  316 81326.39   58.637-152.883 58.3D160.905.035                0X    0
PDE   1989  316 93359.86  -30.208-178.062 56.9D 41.205.827                0X    0
PDE   1989  316133337.30   13.629 120.790136.5D 41.015.327                0X    0
PDE   1989  316171221.18  -16.859 -64.926 33.0N  1.075.1165.6Z 1          0X    0
PDE   1989  317 05051.66   41.238  19.935 10.0G  1.405.116      4.60MLTI  0X    0
PDE   1989  317 15349.81  -17.818-178.830571.5   0.985.019                0X    0
PDE   1989  317 22155.83   27.131 127.401 92.6   1.005.876                0X    0
PDE   1989  317 54251.82   34.640  25.585 17.4*  1.364.8425.2Z 1          0X    0
PDE   1989  317133838.69   -5.840 146.585 33.0N  1.005.7285.7Z13          0X    0
PDE   1989  317163719.22   35.675 140.650 57.7   0.855.457                0X    0
PDE   1989  317172621.30   58.638-155.745149.1   0.825.049                0X    0
PDE   1989  3171933 8.71  -34.408-178.481 58.0   1.085.923                0X    0
PDE   1989  318122510.47* -21.878-179.639615.2*  0.985.211                0X    0
PDE   1989  318133749.36  -23.626 178.841541.4   1.245.222                0X    0
PDE   1989  319 03322.27   12.769 143.423111.5   0.885.321                0X    0
PDE   1989  319 12935.38* -38.068 -93.774 10.0G  1.075.2114.6Z 1          0X    0
PDE   1989  319 23852.30    1.522 126.647 69.7*  1.205.290                0X    0
PDE   1989  319 53659.28   39.267  23.506 10.0G  1.315.2495.3Z 5          0X    0
PDE   1989  319 75955.71    1.698 127.160116.3*  0.995.280                0X    0
PDE   1989  319183914.24? -15.585-173.644 33.0N  0.875.410                0X    0
PDE   1989  320 1 633.06   59.914-153.740127.6D420.895.143      5.70mbBR  0X    0
PDE   1989  320 23650.42   24.254 125.175 29.4D181.045.3305.6Z 3          0X    0
PDE   1989  320104111.09    2.325 -84.573 10.0G  0.895.2255.1Z 1          0X    0
PDE   1989  321 03416.14?  -5.633 146.873184.4*  1.005.170                0X    0
PDE   1989  322124051.15   23.403 -45.018 10.0G  0.935.1355.3Z 6          0X    0
PDE   1989  32214 013.57?  -8.274 128.549146.7?  1.305.410                0X    0
PDE   1989  322163855.06   -9.770 154.245 24.8*  0.955.014                0X    0
PDE   1989  322173011.23*  -4.261 139.645 33.0N  1.335.030                0X    0
PDE   1989  322181052.74* -20.668-178.718557.1?  1.275.129                0X    0
PDE   1989  323 25749.93*  -2.772 125.624 33.0N  1.535.130                0X    0
PDE   1989  323 31045.07*   2.333 128.225 92.9?  1.235.012                0X    0
PDE   1989  323 45024.94* -11.139 123.742 33.0N  1.435.060                0X    0
PDE   1989  323 73847.51   -6.926  72.304 10.0G  1.005.022                0X    0
PDE   1989  323 93123.84   33.792 141.421 47.3   0.875.6635.1Z 4          0X    0
PDE   1989  3231750 0.67*  -5.114 -80.402 33.0N  0.825.114                0X    0
PDE   1989  324 81557.24*  -5.873 127.759420.4*  0.685.150                0X    0
PDE   1989  324 94930.91  -58.928 148.771 10.0G  0.985.3705.7Z 4          0X    0
PDE   1989  324153129.31   11.268 -86.459 67.7*  1.255.223                0X    0
PDE   1989  325 81057.44* -24.734-177.137137.6?  1.185.090                0X    0
PDE   1989  3251657 3.19* -29.766-177.785 54.2D101.175.010                0X    0
PDE   1989  326 25546.96   19.302 121.101 27.6D 71.315.2145.1Z 4          0X    0
PDE   1989  326 63949.20  -14.708 -73.922107.0D 40.785.331                0X    0
PDE   1989  326235859.28?   5.637 -77.666 33.0N  1.235.020                0X    0
PDE   1989  327 13621.59* -20.938-178.227553.2?  0.755.011                0X    0
PDE   1989  327 51940.86  -17.927-178.743569.3   0.855.113                0X    0
PDE   1989  327154544.85   12.144 144.162 36.8*  1.275.4314.9Z 6          0X    0
PDE   1989  328 95527.25* -22.697 172.276 33.0N  1.115.0604.2Z 2          0X    0
PDE   1989  328132911.29   34.062  24.684 33.0N  1.225.4515.4Z 6          0X    0
PDE   1989  32817 510.64* -29.723-177.799 53.4D 51.265.215                0X    0
PDE   1989  329 33128.84*  -5.572 129.594175.9*  1.125.040                0X    0
PDE   1989  329 4 612.46  -18.353 -72.380 41.8D 81.005.415                0X    0
PDE   1989  329 81532.06   42.341  19.969 12.6   1.345.050                0X    0
PDE   1989  329 95830.85   -4.783 152.530 85.1*  1.065.360                0X    0
PDE   1989  329191054.74*  -5.565 154.503156.2*  1.215.210                0X    0
PDE   1989  330 33643.93    5.019 127.178100.0*  1.155.460                0X    0
PDE   1989  330124626.06% -19.850 133.688  5.0G  0.895.320                0X    0
PDE   1989  330141212.77   41.816 143.679 22.0D 80.765.3575.1Z 7          0X    0
PDE   1989  330203929.86  -19.481-175.993232.5D290.805.623      5.60mbBR  0X    0
PDE   1989  331 65039.06   -1.634 -13.063 10.0G  0.715.0324.9Z 1          0X    0
PDE   1989  4 1 43050.96    5.273 126.633 57.2*  0.945.080                0X    0
PDE   1989  4 1113612.28*  -5.136 151.494106.4*  1.455.250                0X    0
PDE   1989  4 1215813.02* -32.874 -70.060 99.7D 31.045.710                0X    0
PDE   1989  4 2 03750.79? -12.059 166.100 33.0N  1.175.210                0X    0
PDE   1989  4 2 11025.31* -19.779-175.894263.7*  0.905.012                0X    0
PDE   1989  4 2 642 4.58   28.210  57.299 45.1*  0.955.3494.7Z 6          0X    0
PDE   1989  4 2 92523.60*  -8.984 126.856 33.0N  1.405.130                0X    0
PDE   1989  4 2104332.39   -5.435 146.792246.7D 60.845.728                0X    0
PDE   1989  4 22052 2.51  -30.859 179.924392.3*  1.105.218                0X    0
PDE   1989  4 2212436.85   32.596  47.785 33.0N  0.935.4625.0Z 5          0X    0
PDE   1989  4 3193241.29   41.605 143.874 45.7   0.894.8605.0Z 1          0X    0
PDE   1989  4 3193935.19   25.050  94.579 92.8D 60.945.159                0X    0
PDE   1989  4 4201052.15   25.022 123.352141.3   0.995.119                0X    0
PDE   1989  4 5 13019.73   46.867 154.122 33.0N  0.995.2314.4Z 1          0X    0
PDE   1989  4 5184444.98? -18.038-177.971623.3*  0.765.011                0X    0
PDE   1989  4 5234750.50* -20.816 -69.427114.7D 81.335.632      6.30mbBR  0X    0
PDE   1989  4 6 8 558.71  -19.454 169.079190.8*  1.406.126      6.30mbBR  0X    0