PDE   2001 0101065704.17    6.90  126.58  33         7.50 MwHRV   .FFG .......
PDE   2001 0101085431.58    6.63  126.90  33         6.80 MwHRV   ...G .......
PDE   2001 0102073003.78    6.75  126.81  33         6.40 MwHRV   .FFG .......
PDE   2001 0102193735.60    1.29  -27.78  10         5.50 MwHRV   ...G .......
PDE   2001 0102231741.97  -11.16  162.44  33         6.00 MwGS    ...G .......
PDE   2001 0103144749.54   43.93  147.81  33         5.90 mb GS   4F.G .......
PDE   2001 0104041821.43   36.98  138.63  21         5.50 mb GS   5..G .......
PDE   2001 0105080646.77   16.11  -61.03  33         5.70 MwHRV   .F.G .......
PDE   2001 0105115413.68   -0.66  -22.07  10         5.50 MwHRV   ...G .......
PDE   2001 0105225153.36    6.92  126.84  83         5.50 MwHRV   ...G .......
PDE   2001 0106044529.09    6.77  126.87  33         5.60 MwGS    .F.G .......
PDE   2001 0106155531.95    5.85  127.35  53         5.70 MwHRV   ...G .......
PDE   2001 0107101820.23  -33.44  -72.23  10         5.90 MwGS    4F.G .......
PDE   2001 0107125546.89   -8.70  108.89  33         5.50 mb GS   ...G .......
PDE   2001 0109014613.34   15.55  -92.90  91         5.60 MwGS    .F.G .......
PDE   2001 0109075203.64  -18.49  176.05  33         5.60 MwHRV   ...G .......
PDE   2001 0109164928     -14.93  167.17 103         7.10 MwGS    .FFG .......
PDE   2001 0110160244.23   57.08 -153.21  33         7.00 MwHRV   6FFG .......
PDE   2001 0111000403      48.89 -129.31  10         6.00 MwGS    ...G .......
PDE   2001 0111195939.76  -18.78 -176.73  10         5.90 MwGS    ...G .......
PDE   2001 0112104740.40  -15.58  -74.81  39         5.70 MwHRV   ...G .......
PDE   2001 0112130757.78  -16.95 -174.99 258         5.50 MwHRV   ...G .......
PDE   2001 0112191825.80   17.33  120.91  33         5.50 mb GS   ...G .......
PDE   2001 0113130842.33   40.74 -125.28   5         5.60 MwHRV   4F.G .......
PDE   2001 0113173332.38   13.05  -88.66  60         7.80 Ms GS   .CFG ......S
PDE   2001 0114085825      22.09  143.75  87         5.90 MwGS    ..FG .......
PDE   2001 0114224128.52   13.12  -88.59  48         5.70 MwHRV   2F.G .......
PDE   2001 0115050911.30   13.18  -88.79  67         5.60 MwHRV   3F.G .......
PDE   2001 0115055216.25  -40.34   78.36  10         6.40 MwGS    ..FG .......
PDE   2001 0115122010.44   13.08  -88.58  74         5.80 MwHRV   4F.G .......
PDE   2001 0116082209.75   13.02  -88.60  44         5.70 MwHRV   4F.G .......
PDE   2001 0116105817      12.98  -88.70  62         5.70 MwHRV   5F.G .......
PDE   2001 0116132501.08   -3.96  101.75  33         6.00 mb GS   .... .......
PDE   2001 0116132509.83   -4.02  101.78  28         6.90 MwGS    5FFG .......
PDE   2001 0116142510.58   -4.31  101.65  33         5.60 mb GS   .... .......
PDE   2001 0116164958.53   -4.19  101.60  57         5.70 MwHRV   ...G .......
PDE   2001 0118072337.18  -13.77   66.19  10         5.50 MwHRV   ...G .......
PDE   2001 0118072639.39   -4.05  101.75  55         5.50 mb GS   3F.G .......
PDE   2001 0118123232.13    2.49  126.34  38         5.60 MwHRV   ...G .......
PDE   2001 0119011252.08   15.40  -92.72  93         6.00 MwHRV   .F.G .......
PDE   2001 0119081014.75  -11.66  166.38  50         6.30 MwGS    ..FG .......
PDE   2001 0119090434.56  -58.16   -9.47  33         6.00 MwHRV   ...G .......
PDE   2001 0120215910.53    2.87  126.53  74         5.50 MwHRV   ...G .......
PDE   2001 0121044401.51   10.17  126.22  33         5.60 MwHRV   ...G .......
PDE   2001 0123052332.27   14.02  -90.91  64         5.90 MwGS    3F.G .......
PDE   2001 0123093925      49.33 -128.79  10         5.90 MwGS    ...G .......
PDE   2001 0123162403.20   29.99  142.04  54         5.60 MwHRV   ...G .......
PDE   2001 0123163330.87  -54.43 -133.80  10         5.60 MwHRV   ...G .......
PDE   2001 0123173812.85   -0.20   99.25  77         5.60 MwHRV   ...G .......
PDE   2001 0124053432.47   -0.60  -19.86  10         5.70 MwGS    ...G .......
PDE   2001 0125052938.28   60.11 -152.36  86         5.50 MwGS    4F.G .......
PDE   2001 0125102851.75   12.91  -88.88  33         5.60 MwHRV   4F.G .......
PDE   2001 0125221837.39  -23.02  170.02  33         5.60 mb GS   ...G .......
PDE   2001 0126031640.50   23.42   70.23  16         8.00 Ms GS   .CFG .......
PDE   2001 0126073228.74   23.32   69.98  10         5.50 Ms GS   .... .......
PDE   2001 0126155939.25  -10.85  161.58  77         5.60 MwHRV   ...G .......
PDE   2001 0127235701.80   -4.35  -76.87 117         5.50 mb GS   4F.G .......
PDE   2001 0128010210.70   23.51   70.52  10         5.90 mb GS   .FFG .......
PDE   2001 0129232125.94   -0.68  133.33  33         6.20 MwHRV   4FFG .......
PDE   2001 0201080217.02   -5.90  147.05  99         5.60 MwHRV   ...G .......
PDE   2001 0201181930.39   51.44 -177.80  33         6.00 MwHRV   .FFG .......
PDE   2001 0202081040.93   12.82  -88.97  54         5.70 MwHRV   5F.G .......
PDE   2001 0202165206.56  -19.27 -176.11  33         5.50 MwHRV   ...G .......
PDE   2001 0205034906.98   64.43 -131.15  10         5.50 MLPGC   ...G .......
PDE   2001 0207102309.83   13.21  -88.94  63         5.80 MwHRV   5F.G .......
PDE   2001 0207151615.22   52.75  153.85 426         5.70 MwGS    ...G .......
PDE   2001 0208054139.99   24.27  125.11  15         5.80 MwGS    4..G .......
PDE   2001 0209102615.76  -19.08 -176.07  33         5.80 MwHRV   ...G .......
PDE   2001 0209130742.62   -6.15  147.76  43         5.50 MwHRV   ...G .......
PDE   2001 0213142205.82   13.67  -88.94  10         6.60 MwHRV   .CFG ......S
PDE   2001 0213192830.26   -4.68  102.56  36         7.40 MwHRV   .FFG .......
PDE   2001 0214044535.64   -5.16  102.49  33         5.60 MwGS    ...G .......
PDE   2001 0214133639.59   48.54  153.30 147         5.80 mb GS   2FFG .......
PDE   2001 0214140425.61  -19.49  177.33  10         6.10 MwGS    ...G .......
PDE   2001 0214141659.18  -19.69  177.39  10         6.20 MwHRV   .F.G .......
PDE   2001 0215124659.43   -5.56  148.30 168         5.60 mb GS   ...G .......
PDE   2001 0216055909.48   -7.16  117.49 521         6.10 MwGS    4FFG .......
PDE   2001 0216131945.54  -15.35  -70.47 210         5.50 MwHRV   2F.G .......
PDE   2001 0217011731.42   13.06  -88.91  33         5.50 MwHRV   4F.G .......
PDE   2001 0217174926.90   20.25  122.43  33         5.50 MwHRV   3F.G .......
PDE   2001 0217201130      53.92 -133.61  20         6.20 MwGS    5F.G .......
PDE   2001 0218130453.42  -47.46   32.39  10         6.00 MwHRV   ...G .......
PDE   2001 0219143155     -45.10  -79.28  10         5.80 MwHRV   ...G .......
PDE   2001 0221152021.39  -11.28  -74.51  33         5.70 MwHRV   5F.G .......
PDE   2001 0221152220.84   -4.90  102.45  33         5.70 mb GS   ...G .......
PDE   2001 0221225029.80    6.62  126.92  75         5.50 MwHRV   ...G .......
PDE   2001 0222075551.54  -27.82  -71.46  29         5.60 MwHRV   ...G .......
PDE   2001 0222080255.08   17.45  -83.59  10         5.50 MwHRV   ...G .......
PDE   2001 0223000923.69   29.51  101.13  33         5.70 mb GS   .C.G .......
PDE   2001 0223235224.14  -30.72 -178.26  59         5.50 MwHRV   .F.G .......
PDE   2001 0223235328.46   53.76  169.01  33         5.50 MLPMR   ...G .......
PDE   2001 0224072348.73    1.27  126.25  35         7.10 MwGS    5FFG .......
PDE   2001 0224160747.73    1.56  126.35  33         5.80 MwHRV   3F.G .......
PDE   2001 0224163344.68    1.55  126.43  33         6.20 MwHRV   4F.G .......
PDE   2001 0224215354.19   37.22  142.15  33         5.90 MwHRV   4..G .......
PDE   2001 0224221232.01   -1.14   67.79  10         5.60 MwHRV   ...G .......
PDE   2001 0225022159.59   36.42   70.88 202         6.20 MwGS    .FFG .......
PDE   2001 0226055822.43   46.81  144.52 392         6.10 MwGS    3.FG .......
PDE   2001 0226060329.60  -43.31   39.28  10         5.60 MwHRV   ...G .......
PDE   2001 0228093516.55    6.58  126.85  60         5.80 MwGS    2F.G .......
PDE   2001 0228103104.42   -6.94  155.83  33         5.60 MwHRV   ...G .......
PDE   2001 0228123014.05  -21.99  170.21  10         6.70 MwHRV   ..FG .......
PDE   2001 0228130531.64  -22.00  170.11  10         6.30 MwHRV   ...G .......
PDE   2001 0228132129.07  -22.09  169.99  10         5.60 mb GS   .... .......
PDE   2001 0228185013.02   13.28  -88.83  65         6.10 MwGS    5F.G ......S
PDE   2001 0228185432.83   47.15 -122.73  51         6.80 MwHRV   8CFG ......M
PDE   2001 0301035954.47  -22.29  170.32  10         5.80 MwHRV   ...G .......
PDE   2001 0303115813.35  -38.77  -74.56  33         5.90 MwGS    2FFG .......
PDE   2001 0303175644.14  -49.74  117.54  10         5.50 MwHRV   ...G .......
PDE   2001 0305110834.96   28.56  129.00  79         5.50 MwHRV   4..G .......
PDE   2001 0305155006.96   34.37   86.90  33         5.90 MwHRV   ...G .......
PDE   2001 0306091736.08  -54.59  157.27  10         6.40 MwGS    ...G .......
PDE   2001 0306124923.29  -10.44  161.30  89         5.50 mb GS   2F.G .......
PDE   2001 0307000924.03  -10.43  161.30  89         5.70 MwGS    ...G .......
PDE   2001 0307181058.65   -6.81  -12.91  10         6.00 MwGS    ...G .......
PDE   2001 0308211124.58   -5.36  102.19  33         5.60 mb GS   3F.G .......
PDE   2001 0311005040.49  -25.37 -177.97 231         5.80 MwGS    ...G .......
PDE   2001 0312140219.43  -35.00 -179.56  33         5.60 MwHRV   ...G .......
PDE   2001 0312233508.37   -7.21  106.12  33         5.80 MwGS    .F.G .......
PDE   2001 0313200457.89   18.77  121.22  33         5.70 MwGS    ...G .......
PDE   2001 0314185618.88    0.45  121.89 109         6.00 MwGS    .FFG .......
PDE   2001 0315012243.37    8.66   94.01  33         6.00 MwGS    ...G .......
PDE   2001 0315130242.11  -32.32  -71.49  37         6.10 mb GS   5FFG .......
PDE   2001 0316000118.38   13.14  -88.70  48         5.90 MwHRV   5F.G .......
PDE   2001 0316043608.73  -20.41  -68.74 115         5.80 MwGS    5F.G .......
PDE   2001 0317072424.61   46.69  151.30 103         5.50 MwGS    ...G .......
PDE   2001 0318154321.31   12.54  -87.40  95         5.70 MwGS    4F.G .......
PDE   2001 0319055215.89   -4.03  128.02  33         6.50 Ms GS   6FFG .......
PDE   2001 0319055657.02   -4.00  127.85  33         5.80 mb GS   .... .......
PDE   2001 0321204734.09   -4.53  153.11  33         5.90 MwGS    ...G .......
PDE   2001 0323052411.94   32.95   46.62  33         5.50 MwGS    ...G .......
PDE   2001 0323113010.52   44.07  148.05  33         6.00 MwGS    3FFG .......
PDE   2001 0324062753.58   34.08  132.53  50         6.80 MwHRV   7CFG .......
PDE   2001 0329065428.28   13.08  -88.94  33         5.80 MwHRV   5F.G .......
PDE   2001 0330073101.81  -34.73 -109.01  10         5.50 MwHRV   ...G .......
PDE   2001 0330181142.46  -59.57  -26.26  33         5.50 MwHRV   ...G .......
PDE   2001 0330202528.16   -2.75  138.90  33         5.50 mb GS   ...G .......
PDE   2001 0331065415.58  -29.40  -68.33 104         5.50 mb GS   ...G .......
PDE   2001 0401083733.92  -34.41   55.46  10         5.50 MwGS    ...G .......
PDE   2001 0402065006.53   11.85  147.32  56         5.70 MwGS    ...G .......
PDE   2001 0402195418.40   40.59  141.77  63         5.50 MwHRV   5F.G .......
PDE   2001 0403132138.42   -3.39  149.10  33         5.60 MwHRV   ...G .......
PDE   2001 0404074411.20   -5.18  132.37  33         6.40 MwHRV   ..FG .......
PDE   2001 0404130614.05  -34.40   55.46  10         5.50 MwHRV   ...G .......
PDE   2001 0407121327.58   21.70  143.32  33         5.80 MwGS    ...G .......
PDE   2001 0407231737.92  -27.55 -176.34  33         6.20 MwHRV   ...G .......
PDE   2001 0408115725.47   -4.38  102.20  64         5.50 MwGS    3F.G .......
PDE   2001 0409090057.17  -32.67  -73.11  11         6.70 MwGS    4FFG .......
PDE   2001 0412104700.38   24.77   99.06  10         5.60 MwGS    .C.G ......S
PDE   2001 0413153353.55  -59.72  -25.59  26         6.20 MwGS    ..FG .......
PDE   2001 0413231617.67   42.73  145.30  33         5.60 MwHRV   4F.G .......
PDE   2001 0414085113.88  -17.09  168.39  17         5.60 MwHRV   ...G .......
PDE   2001 0414191614.25   12.91  144.58  33         5.50 mb GS   .F.G .......
PDE   2001 0414232726.66   30.09  141.77  10         6.00 mb GS   ..FG .......
PDE   2001 0417014211.09  -20.78  -70.48  33         5.60 MwHRV   3F.G .......
PDE   2001 0417215402.60   51.24 -179.78  33         5.90 MwHRV   .FFG .......
PDE   2001 0417232529.65   51.28 -179.83  33         5.60 MLPMR   ...G .......
PDE   2001 0419024036.03   -7.41  155.96  10         5.90 MwHRV   .FFG .......
PDE   2001 0419031325.58   -7.45  155.89  12         6.00 mb GS   .FFG .......
PDE   2001 0419205826.14   -7.31  155.96  20         6.20 MwHRV   .FFG .......
PDE   2001 0419214342.28   -7.41  155.87  17         6.70 MwHRV   .FFG .......
PDE   2001 0420192050.79   -7.56  155.96  10         5.60 MwHRV   .F.G .......
PDE   2001 0421003555.10  -46.29   95.97  10         5.50 MwHRV   ...G .......
PDE   2001 0421130919.42  -13.55  -76.65  38         5.60 MwHRV   4F.G .......
PDE   2001 0421181546.83  -29.10  -67.52 127         5.80 MwGS    2F.G .......
PDE   2001 0423042556.17   -5.20  132.37  33         5.50 MwHRV   ...G .......
PDE   2001 0424095433.41  -19.41 -173.83  33         5.80 MwHRV   ...G .......
PDE   2001 0424132724.83   18.45  120.66  50         5.50 MwHRV   ...G .......
PDE   2001 0425045426.85   -7.51  155.92  10         5.50 MwHRV   ...G .......
PDE   2001 0425144006.04   32.82  132.02  33         5.70 mb GS   5F.G .......
PDE   2001 0425210242.31   -9.18  106.49  33         5.50 mb GS   2F.G .......
PDE   2001 0426174857.47   43.10  145.92  86         6.00 MwGS    6FFG .......
PDE   2001 0426185951.02    8.34 -103.21  10         5.70 MwHRV   ...G .......
PDE   2001 0428044953.43  -18.06 -176.94 351         6.90 MwGS    .FFG .......
PDE   2001 0429212654.54   18.74 -104.54  10         6.20 MwHRV   ...G .......
PDE   2001 0430020202.42   43.88  147.39  47         5.60 mb GS   3F.G .......
PDE   2001 0503043157.06    0.46  126.30  33         5.80 MwHRV   ...G .......
PDE   2001 0505052115.76  -23.52 -111.88  10         5.70 MwHRV   ...G .......
PDE   2001 0506001213.59  -24.46 -116.08  10         5.60 MwHRV   ...G .......
PDE   2001 0507000037.54  -14.93 -173.47  33         5.70 MwHRV   ...G .......
PDE   2001 0507003323.80  -56.19 -144.47  10         6.20 MwGS    ...G .......
PDE   2001 0508051537.46   18.78 -104.17  33         5.50 MwHRV   ...G .......
PDE   2001 0508180216.91   13.60  -88.79  10         5.70 MwHRV   .C.G ......S
PDE   2001 0509154736.75   53.64 -164.32  42         5.80 mb GS   .F.G .......
PDE   2001 0509173826.12  -10.32  161.23  67         6.30 MwHRV   5FFG .......
PDE   2001 0511060626.84  -34.92 -108.07  10         5.50 MwHRV   ...G .......
PDE   2001 0514023238.11  -27.17 -176.90  33         5.70 MwHRV   ...G .......
PDE   2001 0515235318.38  -28.06  -66.55 176         5.60 MwHRV   3F.G .......
PDE   2001 0516002621.53   -4.24  143.42 133         5.50 MwGS    ...G .......
PDE   2001 0518020533.45    0.41   97.78  33         5.90 MwGS    3FFG .......
PDE   2001 0518105945.37   -7.53  155.89  33         5.60 MwHRV   ...G .......
PDE   2001 0519173625.59  -19.90 -177.51 368         6.00 MwHRV   ..FG .......
PDE   2001 0520042143.82   18.82 -104.45  33         6.30 MwHRV   .FFG .......
PDE   2001 0521164305       2.77  -95.36  10         5.50 MwHRV   ...G .......
PDE   2001 0523153523.17  -17.71 -178.70 567         5.60 MwGS    ...G .......
PDE   2001 0523211043.96   27.69  101.00  33         5.50 MwHRV   .C.G .......
PDE   2001 0524180755.44  -38.87  175.39 260         5.50 MwGS    .F.G .......
PDE   2001 0525004050.60   44.27  148.39  33         6.70 Ms GS   3FFG .......
PDE   2001 0525050610.68   -7.87  110.18 143         6.30 MwGS    5CFG .......
PDE   2001 0526105726.15  -20.29 -177.84 406         6.40 MwGS    ...G .......
PDE   2001 0527084847.24  -19.59  168.85  33         5.50 mb GS   ...G .......
PDE   2001 0528083705.11   -6.61  132.35  33         6.00 MwGS    .F.G .......
PDE   2001 0529184805.55   19.85 -109.17  48         5.50 MwHRV   ...G .......
PDE   2001 0529233719.49   -7.02  155.04  14         6.40 Ms GS   ..FG .......
PDE   2001 0530002921.70   -7.03  155.00  10         5.70 MwHRV   ...G .......
PDE   2001 0601203656.75   -7.20  154.92  33         5.90 MwHRV   ..FG .......
PDE   2001 0603024157.16  -29.67 -178.63 178         7.20 MwHRV   .FFG .......
PDE   2001 0604184235.12   64.74 -152.43  10         5.60 MLPMR   4F.G .......
PDE   2001 0604224101.64   17.10  145.83  83         5.70 mb GS   .F.G .......
PDE   2001 0605090005.38   -6.88  146.39  10         6.40 MwHRV   .CFG ......S
PDE   2001 0605092012.10   -6.73  146.56  10         5.50 mb GS   .... .......
PDE   2001 0605151358.15   -6.82  146.41  10         6.00 MwHRV   ..FG .......
PDE   2001 0609082242.92   -5.13  152.73  33         5.60 MwHRV   ...G .......
PDE   2001 0610015208.01   39.87   53.89  34         5.50 mb GS   3FFG .......
PDE   2001 0610112532.48   -6.51  154.93  33         5.50 mb GS   ...G .......
PDE   2001 0610131104.23   38.58   25.61  33         5.60 MwHRV   .D.G .......
PDE   2001 0613034929.02  -18.83 -173.35  33         5.50 MwHRV   ...G .......
PDE   2001 0613131755.15   24.46  122.40  77         5.60 mb GS   5F.G .......
PDE   2001 0614023525.81   24.51  122.03  32         5.90 MwHRV   7C.G .......
PDE   2001 0614122704.43  -22.05 -179.46 604         5.70 MwGS    ...G .......
PDE   2001 0614133926.88   51.19 -179.85  33         5.50 MwHRV   ...G .......
PDE   2001 0614194847.85   51.16 -179.83  18         6.50 MwHRV   5FFG .......
PDE   2001 0614233128.87   18.85  146.81  33         5.90 MwGS    ...G .......
PDE   2001 0615061745.33   18.83  146.98  33         6.00 MwGS    ..FG .......
PDE   2001 0615161907.61   13.90   51.68  10         6.00 MwHRV   ...G .......
PDE   2001 0616021338.18  -14.89 -173.34  10         6.00 MwGS    ..FG .......
PDE   2001 0618195656.33  -24.29  -69.17  88         5.80 MwGS    5F.G .......
PDE   2001 0618233108.47  -20.15  169.06  33         5.50 MwHRV   ...G .......
PDE   2001 0619093224.71  -22.74  -67.88 146         6.00 MwGS    5F.G .......
PDE   2001 0619141204.30    1.60  -85.16  33         5.70 MwHRV   ...G .......
PDE   2001 0620000430.82   45.52  152.04  33         5.70 MwHRV   ...G .......
PDE   2001 0623065242.96   35.55   28.16  50         5.70 MwHRV   3F.G .......
PDE   2001 0623143419.38    1.44  125.69  70         5.70 MwGS    5F.G .......
PDE   2001 0623165109.86   55.01 -159.33  35         5.50 MwGS    4F.G .......
PDE   2001 0623203314.13  -16.26  -73.64  33         8.40 MwHRV   8CFG .T....S
PDE   2001 0623205607.21  -17.40  -72.17  33         5.80 mb GS   .... .......
PDE   2001 0623210539.17  -17.84  -71.35  33         5.80 mb GS   .... .......
PDE   2001 0623212735.71  -17.18  -72.64  33         6.10 mb GS   .... .......
PDE   2001 0623222439.52  -16.65  -73.61  33         5.70 mb GS   .... .......
PDE   2001 0623223237.28  -17.60  -72.65  33         5.50 mb GS   .... .......
PDE   2001 0623231000.99  -16.77  -73.63  33         5.90 mb GS   .... .......
PDE   2001 0623234913.88  -17.85  -71.58  33         5.60 mb GS   .... .......
PDE   2001 0624012253.46  -17.58  -71.96  33         5.50 Ms GS   .... .......
PDE   2001 0624023106.39  -17.75  -71.53  33         5.60 Ms GS   .... .......
PDE   2001 0624131851.71   44.19  148.51  33         6.00 MwHRV   3F.G .......
PDE   2001 0625063847.87  -16.85  -73.79  33         5.70 MwHRV   ...G .......
PDE   2001 0625132846.51   37.24   36.21   5         5.50 MwHRV   .C.G .......
PDE   2001 0625221410.04  -17.57  -70.68  73         5.50 MwHRV   4F.G .......
PDE   2001 0626041831.38  -17.75  -71.65  24         6.70 Ms GS   5FFG .......
PDE   2001 0626123352.03   -4.07 -104.47  10         6.10 MwGS    ...G .......
PDE   2001 0626140537      61.34 -140.07  10         5.80 mb GS   5FFG .......
PDE   2001 0626151546.54  -19.53 -176.39  33         5.50 MwHRV   ...G .......
PDE   2001 0627002106.90  -17.89  -71.53  33         5.50 MwHRV   4F.G .......
PDE   2001 0629183551.98  -19.52  -66.25 273         6.10 MwGS    3FFG .......
PDE   2001 0630085720.58  -17.46  -72.07  33         5.50 mb GS   3F.G .......
PDE   2001 0630163436.08   -6.41  146.76 103         5.90 MwGS    ..FG .......
PDE   2001 0701014606.13   -4.31  152.96  28         6.10 MwGS    ..FG .......
PDE   2001 0701034058.01   -4.24  123.25  33         5.60 MwHRV   ...G .......
PDE   2001 0703031807.21   -6.03  154.81 210         5.90 MwGS    ...G .......
PDE   2001 0703125742.64  -16.62  -73.97  33         5.60 MwHRV   3F.G .......
PDE   2001 0703131042.60   21.64  142.98 290         6.50 MwGS    2.FG .......
PDE   2001 0704070631.60  -21.73 -176.71 184         6.50 MwGS    ..FG .......
PDE   2001 0704094831.86   32.15  139.60  33         5.60 MwHRV   ...G .......
PDE   2001 0704102331.90   32.19  139.50  33         5.50 MwHRV   ...G .......
PDE   2001 0704120903.84  -17.00  -65.71  33         6.20 MwHRV   .FFG .......
PDE   2001 0704174745      32.15  139.54  33         5.90 MwHRV   2F.G .......
PDE   2001 0705014118.09   32.16  139.58  33         5.70 MwHRV   2F.G .......
PDE   2001 0705034731.93   32.21  139.54  33         5.60 MwHRV   2F.G .......
PDE   2001 0705135348.36  -16.09  -73.99  62         6.60 MwGS    5DFG .......
PDE   2001 0706113351.09   44.51  149.32  50         5.50 MwHRV   ...G .......
PDE   2001 0707045936.11   12.43  -87.52  79         5.50 MDCIG   2F.G .......
PDE   2001 0707051103.46    2.86   66.23  10         5.60 MwHRV   ...G .......
PDE   2001 0707093843.52  -17.54  -72.08  33         7.60 MwHRV   6C.G .......
PDE   2001 0708175418.76   -6.66  152.11  10         6.20 MwHRV   ...G .......
PDE   2001 0712061216.79   -7.43  -13.38  10         5.70 MwHRV   ...G .......
PDE   2001 0713194819.24   28.75  -43.44  10         5.70 MwHRV   ...G .......
PDE   2001 0717150615.24   46.74   11.20  10         5.60 MLCLL   .C.G ......S
PDE   2001 0719131026.13  -17.40  167.69  33         5.50 MwHRV   ...G .......
PDE   2001 0719180040.38   57.20 -151.04  33         5.90 mb GS   3FFG .......
PDE   2001 0719201215.59  -16.97 -174.68 226         5.90 MwHRV   ...G .......
PDE   2001 0720094554.66    6.13  126.82  90         5.50 mb GS   ...G .......
PDE   2001 0722181509.01   -5.15  132.34  33         6.00 MwGS    ...G .......
PDE   2001 0723010227.99  -22.59 -179.68 595         5.60 MwHRV   ...G .......
PDE   2001 0724045305.77   -3.42  134.68  33         5.80 MwHRV   ...G .......
PDE   2001 0724050009.09  -19.45  -69.25  33         6.40 MwGS    7CFG .......
PDE   2001 0724174241.50  -32.85  -71.58  33         5.50 mb GS   .C.G .......
PDE   2001 0725160252.03   33.17   95.60  33         5.50 MwHRV   .F.G .......
PDE   2001 0725215636.98    0.04  122.97 156         5.60 MwHRV   ...G .......
PDE   2001 0726002136.92   39.06   24.24  10         6.60 Ms GS   .DFG .......
PDE   2001 0728073243.01   59.03 -155.12 131         6.80 MwGS    4FFG .......
PDE   2001 0730043443.47   -4.08 -103.92  10         5.60 MwHRV   ...G .......
PDE   2001 0731065740.83  -17.69 -178.83 564         5.50 MwGS    ...G .......
PDE   2001 0731094314.50   -5.28  103.34  33         5.70 MwHRV   4F.G .......
PDE   2001 0731122404.45   51.16  179.38  33         5.80 MwHRV   ...G .......
PDE   2001 0731150804.04  -15.16 -174.72  33         5.70 MwHRV   ...G .......
PDE   2001 0731151118.30    1.56  126.40  33         5.80 mb GS   ...G .......
PDE   2001 0731164130.93    8.02  117.47  33         5.50 MwHRV   ...G .......
PDE   2001 0802234106.17   56.26  163.79  14         6.30 MwGS    4FFG .......
PDE   2001 0804014453.70    2.81  127.00  33         5.90 MwGS    ...G .......
PDE   2001 0805051616.89   12.22   93.35  96         5.90 MwGS    ...G .......
PDE   2001 0805115806.46  -10.81  164.95  33         5.70 MwHRV   ...G .......
PDE   2001 0806035259.51  -55.54 -123.42  10         6.70 MwHRV   ...G .......
PDE   2001 0806035609.62  -55.57 -123.39  10         5.60 mb GS   .... .......
PDE   2001 0807032235.89   -8.61  113.83  90         5.60 MwGS    4F.G .......
PDE   2001 0808130803.69  -10.87  165.40  33         5.60 MwHRV   ...G .......
PDE   2001 0809020659.93  -14.26  -72.68  33         5.80 MwGS    .C.G .......
PDE   2001 0809030902.35  -30.66 -178.07  51         5.60 MwHRV   .F.G .......
PDE   2001 0809033344.98  -18.17  -69.43 112         5.60 MwHRV   5F.G .......
PDE   2001 0809132017.48   -7.35  120.72  33         5.50 mb GS   ...G .......
PDE   2001 0809185749.72   -5.51  149.60 145         5.50 MwGS    ...G .......
PDE   2001 0810054340      14.02  -91.88  33         5.50 MwHRV   ...G .......
PDE   2001 0810162435.14  -14.70  167.11  82         5.70 MwGS    ...G .......
PDE   2001 0811064428.58  -17.90  -71.21  37         5.60 mb GS   4F.G .......
PDE   2001 0812032651.10   -5.97  130.07  33         5.50 MwHRV   ...G .......
PDE   2001 0812120609.12    6.32   94.77  33         5.50 MwHRV   ...G .......
PDE   2001 0812155351.60   11.50  -86.71  29         5.60 MwHRV   ...G .......
PDE   2001 0813082104.20  -13.62  166.28  33         5.70 MwHRV   ...G .......
PDE   2001 0813201123.40   41.05  142.31  38         6.40 MwGS    5FFG .......
PDE   2001 0815150819.97  -22.66  179.32 586         5.60 MwHRV   ...G .......
PDE   2001 0816185018.96  -36.71   78.67  10         5.50 MwHRV   ...G .......
PDE   2001 0817222549.01   25.75  126.19  33         5.90 MwGS    4FFG .......
PDE   2001 0820041237.47   25.65  126.21  33         5.50 mb GS   4F.G .......
PDE   2001 0821065206.25  -36.81 -179.57  33         7.10 Ms GS   .FFG .......
PDE   2001 0823214503.16   -3.37  146.31  10         6.20 Ms GS   ...G .......
PDE   2001 0823235645.56   -3.14  146.72  10         5.50 MwHRV   ...G .......
PDE   2001 0824213400.72  -36.81  179.95  36         5.80 MwHRV   ...G .......
PDE   2001 0825020202.50    7.63  -82.77  24         6.10 MwGS    ..FG .......
PDE   2001 0826141108.25   14.19   51.79  10         5.70 MwHRV   ...G .......
PDE   2001 0827011647.45    1.09  126.36  33         6.10 MwHRV   4F.G .......
PDE   2001 0828065609.18  -21.72  -70.11  65         5.90 MwGS    5FFG ......S
PDE   2001 0828093801.13  -41.49  -90.73  10         5.60 MwHRV   ...G .......
PDE   2001 0829224724.04  -47.43  100.02  10         5.60 MwHRV   ...G .......
PDE   2001 0830081227.24  -22.93  169.79  10         5.80 MwGS    ...G .......
PDE   2001 0901130811.61   47.33  142.55  10         5.50 mb GS   7F.G .......
PDE   2001 0901235422.01   -5.39  151.20  59         5.50 mb GS   ...G .......
PDE   2001 0902022554.09    0.89   82.50  10         6.10 MwGS    .F.G .......
PDE   2001 0902100651.50  -54.36 -137.02  10         6.30 Ms GS   ...G .......
PDE   2001 0902111350.81  -54.37 -136.62  10         5.90 MwHRV   ...G .......
PDE   2001 0902165801.11   38.80   72.15  33         5.50 MwHRV   ...G .......
PDE   2001 0903211045.70  -16.28  178.16  10         5.80 MwGS    ...G .......
PDE   2001 0905045343.37  -16.24  178.00  10         5.90 MwGS    ...G .......
PDE   2001 0907024559     -13.17   97.30  10         6.20 mb GS   .FFG .......
PDE   2001 0911091326.10   14.99  -91.57 161         5.60 MwGS    ...G .......
PDE   2001 0911145650.92   -0.58  133.13  33         6.50 MwGS    3FFG .......
PDE   2001 0911182109.23   45.45  150.68  33         5.50 MwHRV   ...G .......
PDE   2001 0912084837.27  -20.99 -179.11 608         6.50 MwHRV   ..FG .......
PDE   2001 0912145038.16   52.46 -169.24  33         5.60 MwHRV   ...G .......
PDE   2001 0912222344.09   27.69  141.91  33         6.00 mb GS   ..FG .......
PDE   2001 0913034831.95  -21.09 -179.11 619         5.50 MwHRV   ...G .......
PDE   2001 0913215926.61   -4.68  153.12  33         5.50 MwHRV   ...G .......
PDE   2001 0914044508      48.69 -128.71  10         6.00 MwGS    ..FG .......
PDE   2001 0915105039      48.56 -128.56  10         5.50 MwHRV   ...G .......
PDE   2001 0915150434.08  -22.39 -175.01  10         6.00 Ms GS   ...G .......
PDE   2001 0916020047.39   37.24   21.87  10         5.50 MwHRV   .D.G .......
PDE   2001 0916232009      48.54 -128.60  10         5.80 MwGS    ...G .......
PDE   2001 0917164340.04   -9.00 -109.52  10         5.50 MwHRV   ...G .......
PDE   2001 0918021930.79   -7.51  127.74 131         6.00 MwGS    ...G .......
PDE   2001 0918103424.28  -27.93 -176.66  33         5.50 MwHRV   ...G .......
PDE   2001 0918145103.92   12.99  -88.76  62         5.50 MwHRV   4F.G .......
PDE   2001 0920020151.82  -11.38  115.04  10         5.60 MwHRV   ...G .......
PDE   2001 0921235639.42   51.79 -175.30  33         5.60 MwHRV   4F.G .......
PDE   2001 0922032338.22    3.87  -75.97 178         6.00 mb GS   .FFG .......
PDE   2001 0924044957.18  -40.34  176.52  33         5.60 MLWEL   .F.G .......
PDE   2001 0925112147.74   46.59  150.79 126         5.50 MwHRV   ...G .......
PDE   2001 0925145644.25   11.96   80.21  10         5.50 mb GS   .F.G .......
PDE   2001 0926213112.23  -26.56  178.16 631         5.90 MwHRV   ...G .......
PDE   2001 0929024007.38  -18.50  168.16  33         6.40 Ms GS   ..FG .......
PDE   2001 0929053214.44   -5.42  151.63  33         5.50 MwHRV   ...G .......
PDE   2001 0930060333.24  -22.54 -113.56  10         5.60 MwHRV   ...G .......
PDE   2001 0930190118.71  -18.42  168.12  33         6.20 Ms GS   .FFG .......
PDE   2001 1001041815.18  -58.31  -25.44  33         5.60 MwHRV   ...G .......
PDE   2001 1002004818.79  -16.18 -173.82 106         6.20 MwGS    ..FG .......
PDE   2001 1002010134.01   34.55  141.42  33         5.90 MwHRV   ...G .......
PDE   2001 1002081949.46   37.74  141.77  42         5.60 MwHRV   4..G .......
PDE   2001 1003112342.34   -3.50  139.72  10         5.70 MwHRV   4F.G .......
PDE   2001 1003172512.54   47.08  148.63 284         5.90 MwGS    3F.G .......
PDE   2001 1007022109.81   -3.30  142.93  10         6.20 MwHRV   ...G .......
PDE   2001 1008033917.98   17.04 -100.00  10         5.90 MwHRV   .F.G .......
PDE   2001 1008181426.44   52.59  160.32  48         6.50 MwHRV   4FFG .......